SUMMARY OF JOB INFORMATION
  STEP      INC     ATT  ITRS     TOT TIME     STEP TIME      INC TIME
     1          1     1     2  0.100000E-02  0.100000E-02  0.100000E-02
     1          2     1     2  0.200000E-02  0.200000E-02  0.100000E-02
     1          3     1     2  0.350000E-02  0.350000E-02  0.150000E-02
     1          4     1     2  0.575000E-02  0.575000E-02  0.225000E-02
     1          5     1     2  0.912500E-02  0.912500E-02  0.337500E-02
     1          6     1     2  0.141875E-01  0.141875E-01  0.506250E-02
     1          7     1     2  0.217813E-01  0.217813E-01  0.759375E-02
     1          8     1     2  0.331719E-01  0.331719E-01  0.113906E-01
     1          9     1     2  0.502578E-01  0.502578E-01  0.170859E-01
     1         10     1     2  0.758867E-01  0.758867E-01  0.256289E-01
     1         11     1     2  0.114330E+00  0.114330E+00  0.384434E-01
     1         12     1     2  0.171995E+00  0.171995E+00  0.576650E-01
     1         13     1     2  0.258493E+00  0.258493E+00  0.864976E-01
     1         14     1     2  0.358493E+00  0.358493E+00  0.100000E+00
     1         15     1     2  0.458493E+00  0.458493E+00  0.100000E+00
     1         16     1     2  0.558493E+00  0.558493E+00  0.100000E+00
     1         17     1     2  0.658493E+00  0.658493E+00  0.100000E+00
     1         18     1     2  0.758493E+00  0.758493E+00  0.100000E+00
     1         19     1     2  0.858493E+00  0.858493E+00  0.100000E+00
     1         20     1     2  0.958493E+00  0.958493E+00  0.100000E+00
     1         21     1     2  0.100000E+01  0.100000E+01  0.415073E-01
